14
/scratch/20cy91r19/bitbucket/pyatomgen/pymlgen/AIMNet2/test-1.xyz
O         -1.43451        1.80616       -0.44883
H         -2.38473        1.84683       -0.56473
H         -1.26765        2.03937        0.47673
C          0.27279        1.26774        2.56794
O         -0.59219        2.04314        2.25290
H          0.73963        0.59047        1.84322
H          0.63084        1.21203        3.60753
C          1.78819        0.54440       -0.86687
C          1.10255       -0.54713       -0.54003
O         -0.22148       -0.64828       -0.29840
H         -0.65018        0.21137       -0.47109
H          2.85442        0.46830       -1.01311
H          1.31622        1.50201       -1.02103
H          1.60149       -1.49905       -0.42525
